Version 4
SHEET 1 880 680
WIRE 112 -48 48 -48
WIRE 288 -48 176 -48
WIRE 48 48 48 -48
WIRE 112 48 48 48
WIRE 288 48 288 -48
WIRE 288 48 192 48
WIRE 48 128 48 48
WIRE 48 128 0 128
WIRE 112 128 48 128
WIRE 288 144 288 48
WIRE 288 144 176 144
WIRE 112 160 80 160
WIRE 80 192 80 160
FLAG -192 240 0
FLAG 400 256 0
FLAG 544 256 0
FLAG 400 176 Vcc+
FLAG 544 176 Vcc-
FLAG 144 176 Vcc-
FLAG 144 112 Vcc+
FLAG -192 160 Vin
FLAG -80 128 Vin
FLAG 80 192 0
SYMBOL OpAmps\\UniversalOpAmp2 144 144 R0
SYMATTR InstName U1
SYMBOL res 208 32 R90
WINDOW 0 0 56 VBottom 2
WINDOW 3 32 56 VTop 2
SYMATTR InstName R1
SYMATTR Value 100k
SYMBOL res 16 112 R90
WINDOW 0 0 56 VBottom 2
WINDOW 3 32 56 VTop 2
SYMATTR InstName R2
SYMATTR Value 10k
SYMBOL cap 176 -64 R90
WINDOW 0 0 32 VBottom 2
WINDOW 3 32 32 VTop 2
SYMATTR InstName C1
SYMATTR Value 1n
SYMATTR SpiceLine IC=318m
SYMBOL voltage -192 144 R0
WINDOW 123 0 0 Left 0
WINDOW 39 0 0 Left 0
SYMATTR InstName V1
SYMATTR Value SINE(0 1 50k)
SYMBOL voltage 400 160 R0
WINDOW 123 0 0 Left 0
WINDOW 39 0 0 Left 0
SYMATTR InstName V2
SYMATTR Value 10
SYMBOL voltage 544 160 R0
WINDOW 123 0 0 Left 0
WINDOW 39 0 0 Left 0
SYMATTR InstName V3
SYMATTR Value -10
TEXT -232 368 Left 2 ;Kolo prakticnog integratora koji se ponasa kao filtar niskih ucestanosti\nPojacanje u propusnom opsegu je 10V/V\nGranicna frekvencija je 1.59kHz\nUlazni signal je na frekvenciji 50kHz => nad njim ce biti izvrseno integraljenje\nNapon na kondenzatoru je 318mV
TEXT -234 500 Left 2 !.tran 500u
