Version 4
SHEET 1 880 680
WIRE 336 48 240 48
WIRE 160 144 160 48
WIRE 160 144 112 144
WIRE 192 144 160 144
WIRE 336 160 336 48
WIRE 336 160 256 160
WIRE 192 320 160 320
WIRE 160 352 160 320
FLAG 448 304 0
FLAG 448 224 Vcc+
FLAG 224 128 Vcc+
FLAG 576 304 0
FLAG 576 224 Vcc-
FLAG 224 192 Vcc-
FLAG -144 304 0
FLAG -144 224 Vin
FLAG 32 144 Vin
FLAG 160 432 0
FLAG 160 320 Vcomp
FLAG 272 320 Vcc-
FLAG 192 176 Vcomp
SYMBOL res 128 128 R90
WINDOW 0 0 56 VBottom 2
WINDOW 3 32 56 VTop 2
SYMATTR InstName R1
SYMATTR Value 1k
SYMBOL res 256 32 R90
WINDOW 0 0 56 VBottom 2
WINDOW 3 32 56 VTop 2
SYMATTR InstName R2
SYMATTR Value 1Meg
SYMBOL voltage 448 208 R0
WINDOW 123 0 0 Left 0
WINDOW 39 0 0 Left 0
SYMATTR InstName V1
SYMATTR Value 5
SYMBOL OpAmps\\UniversalOpAmp2 224 160 R0
SYMATTR InstName U1
SYMATTR SpiceLine Ilimit=25m Rail=0 Vos=2m
SYMBOL voltage 576 208 R0
WINDOW 123 0 0 Left 0
WINDOW 39 0 0 Left 0
SYMATTR InstName V2
SYMATTR Value -5
SYMBOL voltage -144 208 R0
WINDOW 123 0 0 Left 0
WINDOW 39 0 0 Left 0
SYMATTR InstName V3
SYMATTR Value SINE(0 1m 1)
SYMBOL res 144 336 R0
SYMATTR InstName R3
SYMATTR Value 10k
SYMBOL res 288 304 R90
WINDOW 0 0 56 VBottom 2
WINDOW 3 32 56 VTop 2
SYMATTR InstName R4
SYMATTR Value 24.99Meg
TEXT -178 328 Left 2 !.tran 10
